docs/evidence/studies/native-webmcp/input.pio.json
{
  "schema": "pio-ir",
  "version": 2,
  "producer": {
    "name": "powerio",
    "version": "0.11.0"
  },
  "value": {
    "type": "powerio.BalancedNetwork",
    "data": {
      "name": "case3test",
      "base_mva": 100.0,
      "base_frequency": 60.0,
      "case_metadata": {},
      "generated_uids": [
        "1",
        "1-2",
        "1-3",
        "2",
        "2-3",
        "3",
        "bus-1",
        "bus-2",
        "bus-3"
      ],
      "buses": [
        {
          "id": 1,
          "kind": "REF",
          "vm": 1.0,
          "va": 0.0,
          "base_kv": 230.0,
          "vmax": 1.1,
          "vmin": 0.9,
          "evhi": null,
          "evlo": null,
          "area": 1,
          "zone": 1,
          "name": null,
          "uid": "1",
          "extras": {}
        },
        {
          "id": 2,
          "kind": "PQ",
          "vm": 1.0,
          "va": 0.0,
          "base_kv": 230.0,
          "vmax": 1.1,
          "vmin": 0.9,
          "evhi": null,
          "evlo": null,
          "area": 1,
          "zone": 1,
          "name": null,
          "uid": "2",
          "extras": {}
        },
        {
          "id": 3,
          "kind": "PV",
          "vm": 1.0,
          "va": 0.0,
          "base_kv": 230.0,
          "vmax": 1.1,
          "vmin": 0.9,
          "evhi": null,
          "evlo": null,
          "area": 1,
          "zone": 1,
          "name": null,
          "uid": "3",
          "extras": {}
        }
      ],
      "loads": [
        {
          "bus": 2,
          "p": 90.0,
          "q": 30.0,
          "voltage_model": null,
          "in_service": true,
          "uid": "bus-2",
          "extras": {}
        }
      ],
      "shunts": [],
      "static_var_compensators": [],
      "branches": [
        {
          "from": 1,
          "to": 2,
          "r": 0.01,
          "x": 0.1,
          "b": 0.0,
          "charging": null,
          "rate_a": 250.0,
          "rate_b": 250.0,
          "rate_c": 250.0,
          "rating_sets": [],
          "current_ratings": null,
          "tap": 0.0,
          "shift": 0.0,
          "in_service": true,
          "angmin": -360.0,
          "angmax": 360.0,
          "control": null,
          "solution": null,
          "uid": "1-2",
          "extras": {}
        },
        {
          "from": 1,
          "to": 3,
          "r": 0.01,
          "x": 0.1,
          "b": 0.0,
          "charging": null,
          "rate_a": 250.0,
          "rate_b": 250.0,
          "rate_c": 250.0,
          "rating_sets": [],
          "current_ratings": null,
          "tap": 0.0,
          "shift": 0.0,
          "in_service": true,
          "angmin": -360.0,
          "angmax": 360.0,
          "control": null,
          "solution": null,
          "uid": "1-3",
          "extras": {}
        },
        {
          "from": 2,
          "to": 3,
          "r": 0.01,
          "x": 0.1,
          "b": 0.0,
          "charging": null,
          "rate_a": 60.0,
          "rate_b": 60.0,
          "rate_c": 60.0,
          "rating_sets": [],
          "current_ratings": null,
          "tap": 0.0,
          "shift": 0.0,
          "in_service": true,
          "angmin": -360.0,
          "angmax": 360.0,
          "control": null,
          "solution": null,
          "uid": "2-3",
          "extras": {}
        }
      ],
      "switches": [],
      "generators": [
        {
          "bus": 1,
          "energy_source": "other",
          "pg": 0.0,
          "qg": 0.0,
          "pmax": 250.0,
          "pmin": 10.0,
          "qmax": 300.0,
          "qmin": -300.0,
          "vg": 1.0,
          "mbase": 100.0,
          "in_service": true,
          "cost": {
            "model": 2,
            "startup": 0.0,
            "shutdown": 0.0,
            "ncost": 3,
            "coeffs": [
              0.11,
              5.0,
              0.0
            ]
          },
          "caps": {
            "pc1": 0.0,
            "pc2": 0.0,
            "qc1min": 0.0,
            "qc1max": 0.0,
            "qc2min": 0.0,
            "qc2max": 0.0,
            "ramp_agc": 0.0,
            "ramp_10": 0.0,
            "ramp_30": 0.0,
            "ramp_q": 0.0,
            "apf": 0.0
          },
          "voltage_regulation_on": true,
          "regulated_bus": null,
          "uid": "bus-1"
        },
        {
          "bus": 3,
          "energy_source": "other",
          "pg": 60.0,
          "qg": 0.0,
          "pmax": 270.0,
          "pmin": 10.0,
          "qmax": 300.0,
          "qmin": -300.0,
          "vg": 1.0,
          "mbase": 100.0,
          "in_service": true,
          "cost": {
            "model": 2,
            "startup": 0.0,
            "shutdown": 0.0,
            "ncost": 3,
            "coeffs": [
              0.085,
              1.2,
              0.0
            ]
          },
          "caps": {
            "pc1": 0.0,
            "pc2": 0.0,
            "qc1min": 0.0,
            "qc1max": 0.0,
            "qc2min": 0.0,
            "qc2max": 0.0,
            "ramp_agc": 0.0,
            "ramp_10": 0.0,
            "ramp_30": 0.0,
            "ramp_q": 0.0,
            "apf": 0.0
          },
          "voltage_regulation_on": true,
          "regulated_bus": null,
          "uid": "bus-3"
        }
      ],
      "storage": [],
      "hvdc": [],
      "transformers_3w": [],
      "areas": [],
      "solver": null,
      "source_format": "matpower"
    }
  },
  "sources": [
    {
      "id": "/input",
      "name": "case3test.m",
      "byte_length": 521,
      "format": "matpower"
    }
  ],
  "source_map": [
    {
      "target": "",
      "relation": "aggregated",
      "spans": [
        {
          "source": "/input",
          "byte_start": 0,
          "byte_end": 521
        }
      ]
    }
  ]
}